Version 4
SHEET 1 1124 680
WIRE 736 16 736 -176
WIRE 512 64 400 64
WIRE 672 64 592 64
WIRE 400 112 400 64
WIRE 736 192 736 112
WIRE 912 192 736 192
WIRE 912 240 912 192
WIRE 912 352 912 304
FLAG 64 160 0
FLAG 64 80 vcc
FLAG 736 -176 vcc
FLAG 400 112 0
FLAG 912 352 0
SYMBOL voltage 64 64 R0
WINDOW 123 0 0 Left 0
WINDOW 39 0 0 Left 0
SYMATTR InstName V1
SYMATTR Value 10v
SYMBOL res 608 48 R90
WINDOW 0 0 56 VBottom 2
WINDOW 3 32 56 VTop 2
SYMATTR InstName R1
SYMATTR Value 100k
SYMBOL pnp 672 112 M180
SYMATTR InstName Q2
SYMATTR Value 2N2907
SYMBOL cap 896 240 R0
SYMATTR InstName C1
SYMATTR Value 10µ
TEXT 30 344 Left 2 !.tran 10m uic
